Circuit: * C:\Users\LostWolf\Desktop\331lab\lab0\rc_highpass.asc

Direct Newton iteration for .op point succeeded.

Date: Sun Sep 20 15:47:20 2015
Total elapsed time: 0.037 seconds.

tnom = 27
temp = 27
method = modified trap
totiter = 2043
traniter = 2040
tranpoints = 1021
accept = 1021
rejected = 0
matrix size = 3
fillins = 0
solver = Normal
Matrix Compiler1:       5 opcodes  0.1/[0.0]/0.1
Matrix Compiler2: 163 bytes object code size  0.1/0.2/[0.1]


