Circuit: * C:\Users\LostWolf\Desktop\331lab\lab1\lab1_nmos 1.2V.asc

Model "ald1101": Oxide thickness thinner than recommended for a level 2 MOSFET.
Instance "m1": Length shorter than recommended for a level 2 MOSFET.

Date: Wed Oct 07 21:47:03 2015
Total elapsed time: 0.080 seconds.

tnom = 27
temp = 27
method = trap
totiter = 1006
traniter = 0
tranpoints = 0
accept = 0
rejected = 0
matrix size = 7
fillins = 0
solver = Normal
Matrix Compiler1: 232 bytes object code size  0.1/0.1/[0.0]
Matrix Compiler2:      40 opcodes  0.1/[0.1]/0.1


