Circuit: * C:\Users\LostWolf\Desktop\331lab\lab1\lab1_pmos_sine.asc

Model "ald1102": Oxide thickness thinner than recommended for a level 2 MOSFET.
Instance "m1": Length shorter than recommended for a level 2 MOSFET.
Direct Newton iteration for .op point succeeded.

Date: Wed Oct 07 21:42:45 2015
Total elapsed time: 0.090 seconds.

tnom = 27
temp = 27
method = modified trap
totiter = 836
traniter = 831
tranpoints = 416
accept = 258
rejected = 158
matrix size = 7
fillins = 0
solver = Normal
Matrix Compiler1: 268 bytes object code size  0.1/0.1/[0.1]
Matrix Compiler2: off  [0.1]/0.1/0.1


