Circuit: * E:\331lab\lab4\lab4.asc

Model "ald1102": Oxide thickness thinner than recommended for a level 2 MOSFET.
Instance "m6": Length shorter than recommended for a level 2 MOSFET.
Instance "m5": Length shorter than recommended for a level 2 MOSFET.
Model "ald1101": Oxide thickness thinner than recommended for a level 2 MOSFET.
Instance "m4": Length shorter than recommended for a level 2 MOSFET.
Instance "m3": Length shorter than recommended for a level 2 MOSFET.
Instance "m2": Length shorter than recommended for a level 2 MOSFET.
Instance "m1": Length shorter than recommended for a level 2 MOSFET.

Date: Mon Nov 16 23:24:38 2015
Total elapsed time: 0.110 seconds.

tnom = 27
temp = 27
method = trap
totiter = 3720
traniter = 0
tranpoints = 0
accept = 0
rejected = 0
matrix size = 24
fillins = 10
solver = Normal
Matrix Compiler1: 1.84 KB object code size  0.4/0.2/[0.1]
Matrix Compiler2: 2.19 KB object code size  0.2/0.2/[0.2]


