Circuit: * E:\331lab\lab5\lab5.asc

WARNING: Node N013 is floating.
WARNING: Node N007 is floating.

WARNING: Less than two connections to node N007.  This node is used by R:U3:G.
Model "ald1102": Oxide thickness thinner than recommended for a level 2 MOSFET.
Instance "m6": Length shorter than recommended for a level 2 MOSFET.
Instance "m5": Length shorter than recommended for a level 2 MOSFET.
Model "ald1101": Oxide thickness thinner than recommended for a level 2 MOSFET.
Instance "m4": Length shorter than recommended for a level 2 MOSFET.
Instance "m3": Length shorter than recommended for a level 2 MOSFET.
Instance "m2": Length shorter than recommended for a level 2 MOSFET.
Instance "m1": Length shorter than recommended for a level 2 MOSFET.
Direct Newton iteration failed to find .op point.  (Use ".option noopiter" to skip.)
Starting Gmin stepping
Gmin = 10
Gmin = 1.07374
vernier = 0.5
vernier = 0.25
vernier = 0.125
vernier = 0.0625
vernier = 0.03125
vernier = 0.015625
vernier = 0.0078125
vernier = 0.00390625
vernier = 0.00195313
vernier = 0.000976563
Gmin = 1.34218
vernier = 0.000488281
Gmin = 0
Gmin stepping succeeded in finding the operating point.

Heightened Def Con from 0.020841 to 0.020841

Date: Wed Dec 02 16:28:54 2015
Total elapsed time: 223.035 seconds.

tnom = 27
temp = 27
method = modified trap
totiter = 8987881
traniter = 8986529
tranpoints = 2114861
accept = 1586405
rejected = 528457
matrix size = 101
fillins = 32
solver = Normal
Thread vector: 22.1/15.4[2] 5.1/3.8[2] 2.3/1.5[2] 0.6/1.4[1]  2592/500
Matrix Compiler1: 6.70 KB object code size  2.6/0.8/[0.5]
Matrix Compiler2: 8.68 KB object code size  1.6/2.1/[1.4]


