Circuit: * E:\331lab\lab5\test2.asc

Direct Newton iteration for .op point succeeded.

Date: Wed Dec 02 18:02:02 2015
Total elapsed time: 0.400 seconds.

tnom = 27
temp = 27
method = modified trap
totiter = 43704
traniter = 43663
tranpoints = 15820
accept = 12368
rejected = 3452
matrix size = 40
fillins = 20
solver = Normal
Matrix Compiler1: 2.86 KB object code size  2.2/1.0/[0.6]
Matrix Compiler2: off  [1.0]/1.6/2.3


