Circuit: * E:\331lab\lab5\test.asc

Direct Newton iteration for .op point succeeded.

Date: Wed Dec 02 16:32:34 2015
Total elapsed time: 0.379 seconds.

tnom = 27
temp = 27
method = modified trap
totiter = 38336
traniter = 38299
tranpoints = 13883
accept = 11049
rejected = 2834
matrix size = 33
fillins = 10
solver = Normal
Matrix Compiler1: 2.08 KB object code size  0.8/0.4/[0.2]
Matrix Compiler2: off  [0.4]/0.5/0.7


