Circuit: * C:\Users\LostWolf\Desktop\331lab\lab1\saber\Draft1.asc

Model "ald1101": Oxide thickness thinner than recommended for a level 2 MOSFET.
Instance "m2": Length shorter than recommended for a level 2 MOSFET.
Direct Newton iteration for .op point succeeded.

Date: Wed Oct 07 21:03:33 2015
Total elapsed time: 0.090 seconds.

tnom = 27
temp = 27
method = modified trap
totiter = 803
traniter = 799
tranpoints = 400
accept = 258
rejected = 142
matrix size = 7
fillins = 0
solver = Normal
Matrix Compiler1: 214 bytes object code size  0.2/0.2/[0.0]
Matrix Compiler2: 487 bytes object code size  0.2/0.3/[0.1]


