Circuit: * E:\331lab\lab3\lab3_2.asc

Model "ald1102": Oxide thickness thinner than recommended for a level 2 MOSFET.
Instance "m1": Length shorter than recommended for a level 2 MOSFET.
Instance "m2": Length shorter than recommended for a level 2 MOSFET.
Direct Newton iteration for .op point succeeded.

Date: Wed Dec 02 18:04:31 2015
Total elapsed time: 0.220 seconds.

tnom = 27
temp = 27
method = modified trap
totiter = 6996
traniter = 6959
tranpoints = 2369
accept = 1644
rejected = 725
matrix size = 42
fillins = 11
solver = Normal
Matrix Compiler1: 2.69 KB object code size  2.2/1.0/[0.6]
Matrix Compiler2: off  [1.1]/1.6/2.2


